
#======================================================================
# CRYSTAL DATA
#----------------------------------------------------------------------
data_VESTA_phase_1

_chemical_name_common                  'Al2 N2'
_cell_length_a                         3.280000
_cell_length_b                         3.128590
_cell_length_c                         4.920000
_cell_angle_alpha                      90.000000
_cell_angle_beta                       90.000000
_cell_angle_gamma                      120.000000
_cell_volume                           43.723835
_space_group_name_H-M_alt              'P 1'
_space_group_IT_number                 1

loop_
_space_group_symop_operation_xyz
   'x, y, z'

loop_
   _atom_site_label
   _atom_site_occupancy
   _atom_site_fract_x
   _atom_site_fract_y
   _atom_site_fract_z
   _atom_site_adp_type
   _atom_site_U_iso_or_equiv
   _atom_site_type_symbol
   Al0        0.6400  0.666667     0.333333     0.499287    Uiso  ? Al
   Al1        0.6400  0.333333     0.666667     0.999287    Uiso  ? Al
   N2         1.0     0.666667     0.333333     0.880713    Uiso  ? N
   N3         1.0     0.333333     0.666667     0.380713    Uiso  ? N
   Sc1        0.3600  0.333333     0.666667     0.999287    Uiso  ? Sc
   Sc0        0.3600  0.666667     0.333333     0.499287    Uiso  ? Sc
